/*--------------------------------*- C++ -*----------------------------------*\
  =========                 |
  \\      /  F ield         | OpenFOAM: The Open Source CFD Toolbox
   \\    /   O peration     | Website:  https://openfoam.org
    \\  /    A nd           | Version:  6
     \\/     M anipulation  |
\*---------------------------------------------------------------------------*/
FoamFile
{
    version     2.0;
    format      ascii;
    class       dictionary;
    object      controlDict;
}
// * * * * * * * * * * * * * * * * * * * * * * * * * * * * * * * * * * * * * //

libs ("libatmosphericModels.so");

application     simpleFoam;

startFrom       latestTime;

startTime       0;

stopAt          endTime;

endTime         5000;

deltaT		1;   

writeControl    timeStep;

writeInterval   5000;

purgeWrite      0;

writeFormat     ascii;

writePrecision  7;

writeCompression on;

timeFormat      general;

timePrecision   6;

runTimeModifiable true;

adjustTimeStep  yes;

maxCo           0.5;

functions
{
#include "functions/yPlus"
#include "functions/residuals"
#include "sampleDict"
#include "surfaces"
}

// ************************************************************************* //
