/*--------------------------------*- C++ -*----------------------------------*\
  =========                 |
  \\      /  F ield         | OpenFOAM: The Open Source CFD Toolbox
   \\    /   O peration     | Website:  https://openfoam.org
    \\  /    A nd           | Version:  8
     \\/     M anipulation  |
\*---------------------------------------------------------------------------*/
FoamFile
{
    version     2.0;
    format      ascii;
    class       dictionary;
    object      fvSolution;
}
// * * * * * * * * * * * * * * * * * * * * * * * * * * * * * * * * * * * * * //

solvers
{
    p
    {
     //   solver          GAMG;
     //   smoother        GaussSeidel;
	solver          PCG;
        preconditioner  DIC;
        tolerance       1e-8;
        relTol          0.1;   

    }

    "(U|k|omega|epsilon)"
    {
        solver          smoothSolver;
        smoother        symGaussSeidel;
        tolerance       1e-8;
        relTol          0.1;
    }
    Phi
    {
        solver          GAMG;
        smoother        DIC;

        tolerance       1e-07;
        relTol          0.01;
    }
}

SIMPLE
{
    residualControl
    {
        p               1e-6;
        U               1e-6;
        "(k|omega|epsilon)" 1e-6;
    }
    consistent			no;     
    nNonOrthogonalCorrectors 0;
    pRefCell        0;
    pRefValue       0;

}

potentialFlow
{
    nNonOrthogonalCorrectors 10;
}

relaxationFactors
{
    fields
    {
        p               0.2;
    }
    equations
    {
        U               0.3;
        "(k|omega|epsilon).*" 0.3;
    }
}

// ************************************************************************* //
