/*--------------------------------*- C++ -*----------------------------------*\
  =========                 |
  \\      /  F ield         | OpenFOAM: The Open Source CFD Toolbox
   \\    /   O peration     | Website:  https://openfoam.org
    \\  /    A nd           | Version:  6
     \\/     M anipulation  |
\*---------------------------------------------------------------------------*/
FoamFile
{
    version     2.0;
    format      ascii;
    class       dictionary;
    object      snappyHexMeshDict;
}
// * * * * * * * * * * * * * * * * * * * * * * * * * * * * * * * * * * * * * //


castellatedMesh on;
snap            on;
addLayers       on;

geometry
{
    buildings
    {
        type triSurfaceMesh;
        file "buildings.stl";
    }
    upstream1700m
    {
        type triSurfaceMesh;
        file "upstream1700m.stl";
    }    
    refinementBox
    {
        type searchableBox;
        min  (-250 -250   0);
        max  ( 400  250 200);
    }

};

castellatedMeshControls
{
// Refinement parameters
// ~~~~~~~~~~~~~~~~~~~~~
// If local number of cells is >= maxLocalCells on any processor
// switches from from refinement followed by balancing
// (current method) to (weighted) balancing before refinement.
    
       	maxLocalCells 60000000;
    	maxGlobalCells 100000000;

// The surface refinement loop might spend lots of iterations refining just a
// few cells. This setting will cause refinement to stop if <= minimumRefine
// are selected for refinement. Note: it will at least do one iteration
// (unless the number of cells to refine is 0)
	minRefinementCells 10;

// Allow a certain level of imbalance during refining
// (since balancing is quite expensive)
// Expressed as fraction of perfect balance (= overall number of cells /
// nProcs). 0=balance always.
        maxLoadUnbalance 0.10;
// Number of buffer layers between different levels.
// 1 means normal 2:1 refinement restriction, larger means slower
// refinement.
	nCellsBetweenLevels 5;


	resolveFeatureAngle 30;
	planarAngle 30;	
        
	features
    (
        {
            file  "upstream1700m.eMesh";
	        level 3;
	    }
        {
            file  "buildings.eMesh";
	        level 5;
	    }
    );

    refinementSurfaces
    {
        upstream1700m
        {
            level (2 3);
            patchInfo { type wall; }
        }		
        buildings
        {
            level (4 5);
            patchInfo { type wall; }
        }		
    }

    refinementRegions
    {
        refinementBox
        {
            mode    inside;
            levels  ((1E15 3));;
        }
    }

    locationInMesh (1000. 0. 400);
    allowFreeStandingZoneFaces false;
}

snapControls
{
	nSmoothPatch 2;	
	nSmoothInternal $nSmoothPatch;
	tolerance 2.0;
	nSolveIter 200;
	nRelaxIter 5;	
	
	nFeatureSnapIter 20;
	nFaceSplitInterval 5;

    
	explicitFeatureSnap    true;
	implicitFeatureSnap    false;
	multiRegionFeatureSnap false;
}

addLayersControls
{
    relativeSizes true;
    expansionRatio      1.15;
    finalLayerThickness 0.8;
    minThickness 0.05;

    layers
    {
        buildings
        {
            nSurfaceLayers 3;
        }
        upstream1700m
        {
            nSurfaceLayers 3;
        }
       "bottom_.*"
        {
            nSurfaceLayers 3;
        }
    }

    nGrow 0;
    featureAngle 120;
    // Maximum number of snapping relaxation iterations. Should stop
    // before upon reaching a correct mesh.
    slipFeatureAngle 30;
    nRelaxIter 30;

    // Number of smoothing iterations of surface normals
    nSmoothSurfaceNormals 20;

    // Number of smoothing iterations of interior mesh movement direction
    nSmoothNormals 5;

    // Smooth layer thickness over surface patches
    nSmoothThickness 10;

    // Stop layer growth on highly warped cells
    maxFaceThicknessRatio 0.5;

    // Reduce layer growth where ratio thickness to medial
    // distance is large
    maxThicknessToMedialRatio 0.5;

    // Angle used to pick up medial axis points
    // Note: changed(corrected) w.r.t 17x! 90 degrees corresponds to 130 in 17x.
    minMedialAxisAngle 90;


    // Create buffer region for new layer terminations
    nBufferCellsNoExtrude 2;


    // Overall max number of layer addition iterations. The mesher will exit
    // if it reaches this number of iterations; possibly with an illegal
    // mesh.
    nLayerIter 300;
}

meshQualityControls
{
// #include "meshQualityDict"
    maxNonOrtho 65;
    maxBoundarySkewness 5;
    maxInternalSkewness 4;
    maxConcave 40;
    minVol 1.E-16;
    minVolCollapseRatio 0.5;
    minTetQuality 1e-30;
    minArea 1e-13;
    minTwist 0.05;
    minDeterminant 0.001;
    minFaceWeight 0.05;
    minVolRatio 0.01;
    minTriangleTwist 0;
    minFlatness 0.5;
    nSmoothScale 4;
    errorReduction 0.75;

}

writeFlags
(
    noRefinement
    scalarLevels
    layerSets
    layerFields
);

mergeTolerance 1e-6;

// ************************************************************************* //
