/*--------------------------------*- C++ -*----------------------------------*\
  =========                 |
  \\      /  F ield         | OpenFOAM: The Open Source CFD Toolbox
   \\    /   O peration     | Website:  https://openfoam.org
    \\  /    A nd           | Version:  8
     \\/     M anipulation  |
\*---------------------------------------------------------------------------*/
/*   Windows 32 and 64 bit porting by blueCAPE: http://www.bluecape.com.pt   *\
|  Based on Windows porting (2.0.x v4) by Symscape: http://www.symscape.com   |
\*---------------------------------------------------------------------------*/
FoamFile
{
    version     2.0;
    format      ascii;
    class       volScalarField;
    location    "0";
    object      nut;
}
// * * * * * * * * * * * * * * * * * * * * * * * * * * * * * * * * * * * * * //

dimensions      [0 2 -1 0 0 0 0];

internalField   uniform 0;

boundaryField
{
    buildings
    {
        type            nutkWallFunction;
        value           uniform 0;
    }
    upstream1700m
    {
        type            nutkWallFunction;
        value           uniform 0;
    }
    "outlet_.*"
    {
        type            calculated;
        value           uniform 0;
    }
    "inlet_.*"
    {
        type            calculated;
        value           uniform 0;
    }
    "side.*"
    {
        type            calculated;
        value           uniform 0;
    }
    
    top
    {
        type            calculated;
        value           uniform 0;
    }
    "bottom.*"
    {
        type            nutkWallFunction;
    	value           uniform 0;
    }
}


// ************************************************************************* //
